Version 4
SHEET 1 1144 680
WIRE -416 64 -496 64
WIRE -304 64 -416 64
WIRE -128 64 -160 64
WIRE -80 64 -128 64
WIRE 96 64 80 64
WIRE 208 64 176 64
WIRE 240 64 208 64
WIRE 288 64 240 64
WIRE 384 64 368 64
WIRE 464 64 384 64
WIRE 560 64 464 64
WIRE 640 64 560 64
WIRE 720 64 640 64
WIRE 768 64 720 64
WIRE 464 160 464 144
WIRE 464 256 464 240
WIRE 464 368 464 336
FLAG 208 64 in2
FLAG -416 144 0
FLAG -416 64 source
FLAG 720 144 0
FLAG -496 144 0
FLAG 560 64 out2
FLAG 384 144 0
FLAG 240 144 0
FLAG 640 144 0
FLAG -160 144 0
FLAG -304 144 0
FLAG -128 144 0
FLAG 464 368 0
FLAG -80 64 out1
SYMBOL SLR 720 64 R0
SYMATTR InstName R1
SYMATTR Value {R_L}
SYMBOL SLR_r -416 64 R0
SYMATTR InstName R3
SYMATTR Value {R_S}
SYMATTR SpiceLine ""
SYMBOL SLI -496 144 R180
WINDOW 0 41 24 Left 2
WINDOW 3 41 8 Left 2
WINDOW 123 41 -28 Left 2
WINDOW 39 41 -4 Left 2
WINDOW 40 41 -16 Left 2
SYMATTR InstName I1
SYMBOL SLL 0 64 R90
WINDOW 0 0 -40 VBottom 2
WINDOW 3 10 -51 VTop 2
WINDOW 123 20 -40 VTop 2
SYMATTR InstName L2
SYMATTR Value {La}
SYMBOL SLABCD 320 48 R0
WINDOW 3 -8 148 Center 2
SYMATTR Value A={A2} B={B2} C={C2} D={D2}
SYMATTR InstName U3
SYMBOL SLI 640 144 R180
WINDOW 0 41 24 Left 2
WINDOW 3 41 8 Left 2
WINDOW 123 41 -28 Left 2
WINDOW 39 41 -4 Left 2
WINDOW 40 41 -16 Left 2
SYMATTR InstName I2
SYMBOL SLABCD -224 48 R0
SYMATTR InstName U1
SYMATTR Value ""
SYMBOL SLL -128 144 R0
SYMATTR InstName L1
SYMATTR Value {L1}
SYMBOL SLL 464 160 R180
WINDOW 0 16 -39 Left 2
WINDOW 3 16 -56 Left 2
WINDOW 123 16 -68 Left 2
SYMATTR InstName L4
SYMATTR Value {Lb}
SYMBOL SLC -80 64 R270
WINDOW 0 16 40 VTop 2
WINDOW 3 -16 40 VBottom 2
WINDOW 123 -28 40 VBottom 2
SYMATTR InstName C3
SYMATTR Value {ca}
SYMBOL SLC 464 64 R0
SYMATTR InstName C1
SYMATTR Value {cb}
SYMBOL SLR_r 96 64 R270
WINDOW 0 8 40 VTop 2
WINDOW 3 -8 40 VBottom 2
WINDOW 39 -20 40 VBottom 2
WINDOW 123 -44 40 VBottom 2
WINDOW 40 -32 40 VBottom 2
SYMATTR InstName R5
SYMATTR Value {ra}
SYMATTR SpiceLine ""
SYMBOL SLR_r 464 256 R0
SYMATTR InstName R6
SYMATTR Value {rb}
SYMATTR SpiceLine ""
TEXT -416 224 Left 2 !.model myNMOS  M gm={g_m} cgs={c_gs} cgb={c_gb} cdg={c_dg} cdb={c_db} go={g_o}
TEXT -456 248 Left 2 !.param R_S=10G R_L=10k R_f=50 R_b=1.5k Z1=50 T1=10n Z2=50 T2=10n L=1n R7_comp=50 R8_comp=50
TEXT -416 272 Left 2 !.model myNMOS2  M gm={g_mp} cgs={c_gsp} cgb={c_gbp} cdg={c_dgp} cdb={c_dbp} go={g_op}
