Version 4
SHEET 1 936 680
WIRE -16 -208 -160 -208
WIRE -16 -160 -16 -208
WIRE -16 0 -16 -80
WIRE -480 64 -560 64
WIRE -416 64 -480 64
WIRE -48 64 -48 48
WIRE -48 64 -416 64
WIRE 32 96 32 48
WIRE 64 96 32 96
WIRE 96 96 64 96
WIRE 144 96 96 96
WIRE 240 96 224 96
WIRE 496 96 240 96
WIRE 576 96 496 96
WIRE 752 96 576 96
WIRE 832 96 752 96
WIRE 880 96 832 96
WIRE -16 144 -16 48
WIRE 448 144 384 144
WIRE 560 144 496 144
WIRE -16 160 -16 144
WIRE 384 256 384 224
WIRE -48 272 -48 64
WIRE 32 272 32 96
WIRE 384 288 384 256
FLAG 64 96 out
FLAG -480 144 0
FLAG -416 64 source
FLAG 832 176 0
FLAG -560 144 0
FLAG -16 224 0
FLAG -16 -208 v1a
FLAG 560 224 0
FLAG 496 176 0
FLAG 384 256 v1b
FLAG -160 -128 0
FLAG 384 368 0
FLAG 576 96 out2
FLAG 240 176 0
FLAG 96 176 0
FLAG 752 176 0
SYMBOL SLR 832 96 R0
SYMATTR InstName R1
SYMATTR Value {R_L}
SYMBOL SLM -16 0 R90
SYMATTR InstName M1
SYMATTR SpiceModel myNMOS
SYMBOL SLR_r -480 64 R0
SYMATTR InstName R3
SYMATTR Value {R_S}
SYMATTR SpiceLine ""
SYMBOL SLI -560 144 R180
WINDOW 0 41 24 Left 2
WINDOW 3 41 8 Left 2
WINDOW 123 41 -28 Left 2
WINDOW 39 41 -4 Left 2
WINDOW 40 41 -16 Left 2
SYMATTR InstName I1
SYMBOL res -32 128 R0
SYMATTR InstName R2
SYMATTR Value {R_b}
SYMBOL res -32 -176 R0
SYMATTR InstName R4
SYMATTR Value {R_b}
SYMBOL SLM 448 144 R0
SYMATTR InstName M2
SYMATTR SpiceModel ""
SYMATTR Value myNMOS2
SYMBOL res 544 128 R0
SYMATTR InstName R5
SYMATTR Value {R_b}
SYMBOL res 368 128 R0
SYMATTR InstName R6
SYMATTR Value {R_b}
SYMBOL SLL -48 272 R90
WINDOW 0 0 -40 VBottom 2
WINDOW 3 8 -40 VTop 2
WINDOW 123 20 -40 VTop 2
SYMATTR InstName L2
SYMATTR Value {L}
SYMBOL SLV -160 -208 R0
SYMATTR InstName V1
SYMBOL SLV 384 288 R0
SYMATTR InstName V2
SYMBOL SLABCD 176 80 R0
WINDOW 3 -8 148 Center 2
SYMATTR Value A={A2} B={B2} C={C2} D={D2}
SYMATTR InstName U3
SYMBOL SLI 752 176 R180
WINDOW 0 41 24 Left 2
WINDOW 3 41 8 Left 2
WINDOW 123 41 -28 Left 2
WINDOW 39 41 -4 Left 2
WINDOW 40 41 -16 Left 2
SYMATTR InstName I2
TEXT -592 272 Left 2 !.model myNMOS  M gm={g_m} cgs={c_gs} cgb={c_gb} cdg={c_dg} cdb={c_db} go={g_o}
TEXT -632 296 Left 2 !.param R_S=10G R_L=10k R_f=50 R_b=1.5k Z1=50 T1=10n Z2=50 T2=10n L=1n R7_comp=50 R8_comp=50
TEXT -592 320 Left 2 !.model myNMOS2  M gm={g_mp} cgs={c_gsp} cgb={c_gbp} cdg={c_dgp} cdb={c_dbp} go={g_op}
