Version 4
SHEET 1 880 680
WIRE -864 112 -944 112
WIRE -688 112 -864 112
WIRE -496 112 -688 112
WIRE -288 112 -496 112
WIRE -256 112 -288 112
WIRE -208 112 -256 112
WIRE -608 160 -704 160
WIRE -544 160 -608 160
WIRE -432 160 -496 160
WIRE -704 272 -704 240
WIRE -704 304 -704 272
FLAG -256 192 0
FLAG -432 240 0
FLAG -496 192 0
FLAG -704 272 v1b
FLAG -704 384 0
FLAG -608 160 in2
FLAG -288 112 out2
FLAG -864 192 0
FLAG -944 192 0
FLAG -688 112 source
SYMBOL SLR -256 112 R0
SYMATTR InstName R1
SYMATTR Value {R_L}
SYMBOL SLM -544 160 R0
SYMATTR InstName M2
SYMATTR SpiceModel ""
SYMATTR Value myNMOS2
SYMBOL res -448 144 R0
SYMATTR InstName R5
SYMATTR Value {R_b}
SYMBOL res -720 144 R0
SYMATTR InstName R6
SYMATTR Value {R_b}
SYMBOL SLV -704 304 R0
SYMATTR InstName V2
SYMBOL SLR_r -864 112 R0
SYMATTR InstName R2
SYMATTR Value {R_S}
SYMATTR SpiceLine ""
SYMBOL SLI -944 192 R180
WINDOW 0 41 24 Left 2
WINDOW 3 41 8 Left 2
WINDOW 123 41 -28 Left 2
WINDOW 39 41 -4 Left 2
WINDOW 40 41 -16 Left 2
SYMATTR InstName I1
TEXT -592 272 Left 2 !.model myNMOS  M gm={g_m} cgs={c_gs} cgb={c_gb} cdg={c_dg} cdb={c_db} go={g_o}
TEXT -632 296 Left 2 !.param R_S=10G R_L=10k R_f=50 R_b=1.5k Z1=50 T1=10n Z2=50 T2=10n L=1n R7_comp=50 R8_comp=50
TEXT -592 320 Left 2 !.model myNMOS2  M gm={g_mp} cgs={c_gsp} cgb={c_gbp} cdg={c_dgp} cdb={c_dbp} go={g_op}
