Version 4
SHEET 1 880 680
WIRE -16 -160 -16 -208
WIRE -16 0 -16 -80
WIRE -368 64 -448 64
WIRE -304 64 -368 64
WIRE -224 64 -304 64
WIRE -48 64 -48 48
WIRE -48 64 -128 64
WIRE 32 96 32 48
WIRE 64 96 32 96
WIRE 128 96 64 96
WIRE 416 96 224 96
WIRE 560 96 416 96
WIRE 608 96 560 96
WIRE -224 128 -224 96
WIRE -128 128 -128 96
WIRE -16 144 -16 48
WIRE 368 144 288 144
WIRE 480 144 416 144
WIRE -16 160 -16 144
WIRE 128 160 128 128
WIRE 224 160 224 128
WIRE 288 256 288 224
WIRE -48 272 -48 64
WIRE 32 272 32 96
FLAG 64 96 out
FLAG -368 144 0
FLAG -304 64 source
FLAG 560 176 0
FLAG -448 144 0
FLAG -224 128 0
FLAG -128 128 0
FLAG -16 224 0
FLAG -16 -208 v1a
FLAG 480 224 0
FLAG 416 176 0
FLAG 288 256 v1b
FLAG 128 160 0
FLAG 224 160 0
SYMBOL SLR 560 96 R0
SYMATTR InstName R1
SYMATTR Value {R_L}
SYMBOL SLM -16 0 R90
SYMATTR InstName M1
SYMATTR SpiceModel myNMOS
SYMBOL SLR_r -368 64 R0
SYMATTR InstName R3
SYMATTR Value {R_S}
SYMATTR SpiceLine ""
SYMBOL SLI -448 144 R180
WINDOW 0 41 24 Left 2
WINDOW 3 41 8 Left 2
WINDOW 123 41 -28 Left 2
WINDOW 39 41 -4 Left 2
WINDOW 40 41 -16 Left 2
SYMATTR InstName I1
SYMBOL ind 48 256 R90
WINDOW 0 5 56 VBottom 2
WINDOW 3 32 56 VTop 2
SYMATTR InstName L1
SYMATTR Value {L}
SYMBOL tline -176 80 R0
SYMATTR InstName T1
SYMATTR Value Td={T1} Z0={Z1}
SYMBOL res -32 128 R0
SYMATTR InstName R2
SYMATTR Value {R_b}
SYMBOL res -32 -176 R0
SYMATTR InstName R4
SYMATTR Value {R_b}
SYMBOL SLM 368 144 R0
SYMATTR InstName M2
SYMATTR SpiceModel ""
SYMATTR Value myNMOS2
SYMBOL res 464 128 R0
SYMATTR InstName R5
SYMATTR Value {R_b}
SYMBOL res 272 128 R0
SYMATTR InstName R6
SYMATTR Value {R_b}
SYMBOL tline 176 112 R0
SYMATTR InstName T2
SYMATTR Value Td={T2} Z0={Z2}
TEXT -592 272 Left 2 !.model myNMOS  M gm={g_m} cgs={c_gs} cgb={c_gb} cdg={c_dg} cdb={c_db} go={g_o}
TEXT -632 296 Left 2 !.param R_S=10G R_L=10k R_f=50 R_b=1.5k Z1=50 T1=10n Z2=50 T2=10n L=1n
TEXT -592 320 Left 2 !.model myNMOS2  M gm={g_mp} cgs={c_gsp} cgb={c_gbp} cdg={c_dgp} cdb={c_dbp} go={g_op}
