Version 4
SHEET 1 880 680
WIRE -368 64 -448 64
WIRE -304 64 -368 64
WIRE -224 64 -304 64
WIRE 416 64 -128 64
WIRE 416 96 416 64
WIRE 560 96 416 96
WIRE 608 96 560 96
WIRE -224 128 -224 96
WIRE -128 128 -128 96
FLAG -368 144 0
FLAG -304 64 source
FLAG 560 176 0
FLAG -448 144 0
FLAG -224 128 0
FLAG -128 128 0
SYMBOL SLR 560 96 R0
SYMATTR InstName R1
SYMATTR Value {R_L}
SYMBOL SLR_r -368 64 R0
SYMATTR InstName R3
SYMATTR Value {R_S}
SYMATTR SpiceLine ""
SYMBOL SLI -448 144 R180
WINDOW 0 41 24 Left 2
WINDOW 3 41 8 Left 2
WINDOW 123 41 -28 Left 2
WINDOW 39 41 -4 Left 2
WINDOW 40 41 -16 Left 2
SYMATTR InstName I1
SYMBOL tline -176 80 R0
SYMATTR InstName T1
SYMATTR Value Td={T1} Z0={Z1}
TEXT -592 272 Left 2 !.model myNMOS  M gm={g_m} cgs={c_gs} cgb={c_gb} cdg={c_dg} cdb={c_db} go={g_o}
TEXT -632 296 Left 2 !.param R_S=10G R_L=10k R_f=50 R_b=1.5k Z1=50 T1=10n Z2=50 T2=10n L=1n
TEXT -592 320 Left 2 !.model myNMOS2  M gm={g_mp} cgs={c_gsp} cgb={c_gbp} cdg={c_dgp} cdb={c_dbp} go={g_op}
