Version 4
SHEET 1 880 680
WIRE -336 64 -384 64
WIRE -272 64 -336 64
WIRE -224 64 -272 64
WIRE -32 64 -80 64
WIRE -16 64 -32 64
WIRE 48 64 -16 64
WIRE -64 144 -80 144
WIRE 48 144 -32 144
WIRE -64 192 -64 144
WIRE 48 192 48 144
WIRE -384 224 -384 144
WIRE -368 224 -384 224
FLAG -368 224 0
FLAG -64 192 0
FLAG -16 64 vout
FLAG -272 64 source
FLAG -64 144 vgout
FLAG -224 144 0
FLAG 48 192 0
FLAG -336 144 0
SYMBOL SLR 48 64 R0
SYMATTR InstName R1
SYMATTR Value {R_L}
SYMBOL SLR_r -336 64 R0
SYMATTR InstName R3
SYMATTR Value {R_S}
SYMATTR SpiceLine ""
SYMBOL SLABCD -144 48 R0
WINDOW 0 -60 -16 Left 2
SYMATTR InstName U1
SYMATTR Value ""
SYMBOL SLL -32 144 R0
SYMATTR InstName L1
SYMATTR Value {L}
SYMBOL SLI -384 144 R180
WINDOW 0 41 24 Left 2
WINDOW 3 41 8 Left 2
WINDOW 123 41 -28 Left 2
WINDOW 39 41 -4 Left 2
WINDOW 40 41 -16 Left 2
SYMATTR InstName I1
TEXT -384 272 Left 2 !.model myNMOS  M gm={g_m} cgs={c_gs} cgb={c_gb} cdg={c_dg} cdb={c_db} go={g_o}
TEXT -424 296 Left 2 !.param R_S=50 R_L=50 R_f=50 R_b=1.5k Z1=50 T1=10n Z2=50 T2=10n L=1n R7_comp=50 R8_comp=50 A_T=10 B_T=10 C_T=10 D_T=10
TEXT -384 320 Left 2 !.model myNMOS2  M gm={g_mp} cgs={c_gsp} cgb={c_gbp} cdg={c_dgp} cdb={c_dbp} go={g_op}
