Version 4
SHEET 1 880 680
WIRE -32 112 -48 112
WIRE 64 112 48 112
WIRE 80 112 64 112
WIRE 272 112 224 112
WIRE 320 112 272 112
WIRE 352 112 320 112
WIRE 272 128 272 112
WIRE 352 128 352 112
WIRE 64 192 48 192
WIRE 80 192 64 192
WIRE 240 192 224 192
WIRE -48 208 -48 112
WIRE 240 208 240 192
WIRE 48 224 48 192
WIRE 272 224 272 208
WIRE 272 224 48 224
WIRE 352 224 352 208
WIRE 352 224 272 224
WIRE 272 240 272 224
WIRE 352 240 352 224
WIRE -48 336 -48 288
WIRE 272 336 272 320
WIRE 352 336 352 320
FLAG 240 208 0
FLAG 272 336 0
FLAG 352 336 0
FLAG -48 336 0
FLAG 320 112 out
FLAG -48 112 1
FLAG 64 112 2
FLAG 64 192 3
SYMBOL SLN_noise 160 96 R0
WINDOW 0 -63 -59 Left 2
WINDOW 38 -62 -42 Left 2
WINDOW 3 -62 -24 Left 2
SYMATTR InstName U1
SYMBOL SLR 272 128 R0
SYMATTR InstName R1
SYMATTR Value {R_b}
SYMBOL SLR 272 240 R0
SYMATTR InstName R2
SYMATTR Value {R_a}
SYMBOL SLI 352 128 R0
SYMATTR InstName I1
SYMATTR SpiceLine2 noise={4*k*T/R_b}
SYMBOL SLI 352 240 R0
SYMATTR InstName I2
SYMATTR SpiceLine2 noise={4*k*T/R_a}
SYMBOL SLR 48 112 R90
WINDOW 0 -8 40 VBottom 2
WINDOW 3 8 40 VTop 2
SYMATTR InstName R3
SYMATTR Value {R_s}
SYMBOL SLV -48 208 R0
SYMATTR InstName V1
SYMATTR SpiceLine2 noise={4*k*T*R_s}
